/*--------------------------------*- C++ -*----------------------------------*\
  =========                 |
  \\      /  F ield         | OpenFOAM: The Open Source CFD Toolbox
   \\    /   O peration     | Website:  https://openfoam.org
    \\  /    A nd           | Version:  12
     \\/     M anipulation  |
\*---------------------------------------------------------------------------*/
FoamFile
{
    format      binary;
    class       volScalarField;
    location    "0";
    object      T;
}
// * * * * * * * * * * * * * * * * * * * * * * * * * * * * * * * * * * * * * //

dimensions      [0 0 0 1 0 0 0];

internalField   uniform 217;

boundaryField
{
    inlet1
    {
        type            fixedValue;
        value           uniform 217;
    }
    outlet1
    {
        type            zeroGradient;
    }
    farfield
    {
        type            zeroGradient;
    }
    symmetry1
    {
        type            symmetryPlane;
    }
    symmetry2
    {
        type            symmetryPlane;
    }
    sphere
    {
        type            zeroGradient;
    }
    procBoundary3to2
    {
        type            processor;
        value           uniform 217;
    }
    procBoundary3to6
    {
        type            processor;
        value           uniform 217;
    }
    procBoundary3to7
    {
        type            processor;
        value           uniform 217;
    }
}


// ************************************************************************* //
