/*--------------------------------*- C++ -*----------------------------------*\
  =========                 |
  \\      /  F ield         | OpenFOAM: The Open Source CFD Toolbox
   \\    /   O peration     | Website:  https://openfoam.org
    \\  /    A nd           | Version:  12
     \\/     M anipulation  |
\*---------------------------------------------------------------------------*/
FoamFile
{
    format      binary;
    class       pointScalarField;
    location    "0";
    object      pointLevel;
}
// * * * * * * * * * * * * * * * * * * * * * * * * * * * * * * * * * * * * * //

dimensions      [];

internalField   uniform 0;

boundaryField
{
    inlet1
    {
        type            calculated;
    }
    outlet1
    {
        type            calculated;
    }
    farfield
    {
        type            calculated;
    }
    symmetry1
    {
        type            symmetryPlane;
    }
    symmetry2
    {
        type            symmetryPlane;
    }
    sphere
    {
        type            calculated;
    }
    procBoundary5to4
    {
        type            processor;
    }
    procBoundary5to6
    {
        type            processor;
    }
    procBoundary5to7
    {
        type            processor;
    }
}


// ************************************************************************* //
