/*--------------------------------*- C++ -*----------------------------------*\
  =========                 |
  \\      /  F ield         | OpenFOAM: The Open Source CFD Toolbox
   \\    /   O peration     | Website:  https://openfoam.org
    \\  /    A nd           | Version:  12
     \\/     M anipulation  |
\*---------------------------------------------------------------------------*/
FoamFile
{
    format      binary;
    class       polyBoundaryMesh;
    location    "constant/polyMesh";
    object      boundary;
}
// * * * * * * * * * * * * * * * * * * * * * * * * * * * * * * * * * * * * * //

7
(
    inlet1
    {
        type            patch;
        nFaces          0;
        startFace       19418;
    }
    outlet1
    {
        type            patch;
        nFaces          400;
        startFace       19418;
    }
    farfield
    {
        type            patch;
        nFaces          662;
        startFace       19818;
    }
    symmetry1
    {
        type            symmetryPlane;
        inGroups        List<word> 1(symmetryPlane);
        nFaces          360;
        startFace       20480;
    }
    symmetry2
    {
        type            symmetryPlane;
        inGroups        List<word> 1(symmetryPlane);
        nFaces          342;
        startFace       20840;
    }
    sphere
    {
        type            wall;
        inGroups        List<word> 1(wall);
        nFaces          0;
        startFace       21182;
    }
    procBoundary4to5
    {
        type            processor;
        inGroups        List<word> 1(processor);
        nFaces          440;
        startFace       21182;
        matchTolerance  0.0001;
        myProcNo        4;
        neighbProcNo    5;
    }
)

// ************************************************************************* //
