/*--------------------------------*- C++ -*----------------------------------*\
| =========                 |                                                 |
| \\      /  F ield         | OpenFOAM: The Open Source CFD Toolbox           |
|  \\    /   O peration     | Version:  v2406                                 |
|   \\  /    A nd           | Website:  www.openfoam.com                      |
|    \\/     M anipulation  |                                                 |
\*---------------------------------------------------------------------------*/
FoamFile
{
    version     2.0;
    format      ascii;
    class       dictionary;
    object      controlDict;
}
// * * * * * * * * * * * * * * * * * * * * * * * * * * * * * * * * * * * * * //

application     rhoCentralFoam;

startFrom       latestTime;

startTime       0;

stopAt          endTime;

endTime         0.0605;

deltaT          2e-8; //1e-7;

writeControl    adjustableRunTime;

writeInterval   5e-3;

purgeWrite      0;

writeFormat     binary;

writePrecision  15;

writeCompression off;

timeFormat      general;

timePrecision   6;

runTimeModifiable true;

adjustTimeStep  yes;

maxCo           0.5;

maxDeltaT       3e-5; //2e-8;

functions
{
    gradP
    {
        type                grad;
        libs                (fieldFunctionObjects);
        field               p;
        executeControl      timeStep;
        executeInterval     20;
        writeControl        writeTime;
    }
    gradP_mag
    {
        type                mag;
        libs                (fieldFunctionObjects);
        field               grad(p);
        executeControl      timeStep;
        executeInterval     20;
        writeControl        writeTime;
    }
}

OptimisationSwitches
{
    //- Parallel IO file handler
    //  uncollated (default), collated or masterUncollated
    //fileHandler collated;
}

// ************************************************************************* //
