/*--------------------------------*- C++ -*----------------------------------*\
  =========                 |
  \\      /  F ield         | OpenFOAM: The Open Source CFD Toolbox
   \\    /   O peration     | Website:  https://openfoam.org
    \\  /    A nd           | Version:  12
     \\/     M anipulation  |
\*---------------------------------------------------------------------------*/
FoamFile
{
    format      binary;
    class       polyBoundaryMesh;
    location    "constant/polyMesh";
    object      boundary;
}
// * * * * * * * * * * * * * * * * * * * * * * * * * * * * * * * * * * * * * //

9
(
    inlet1
    {
        type            patch;
        nFaces          260;
        startFace       19455;
    }
    outlet1
    {
        type            patch;
        nFaces          0;
        startFace       19715;
    }
    farfield
    {
        type            patch;
        nFaces          881;
        startFace       19715;
    }
    symmetry1
    {
        type            symmetryPlane;
        inGroups        List<word> 1(symmetryPlane);
        nFaces          0;
        startFace       20596;
    }
    symmetry2
    {
        type            symmetryPlane;
        inGroups        List<word> 1(symmetryPlane);
        nFaces          331;
        startFace       20596;
    }
    sphere
    {
        type            wall;
        inGroups        List<word> 1(wall);
        nFaces          0;
        startFace       20927;
    }
    procBoundary3to2
    {
        type            processor;
        inGroups        List<word> 1(processor);
        nFaces          519;
        startFace       20927;
        matchTolerance  0.0001;
        myProcNo        3;
        neighbProcNo    2;
    }
    procBoundary3to6
    {
        type            processor;
        inGroups        List<word> 1(processor);
        nFaces          90;
        startFace       21446;
        matchTolerance  0.0001;
        myProcNo        3;
        neighbProcNo    6;
    }
    procBoundary3to7
    {
        type            processor;
        inGroups        List<word> 1(processor);
        nFaces          217;
        startFace       21536;
        matchTolerance  0.0001;
        myProcNo        3;
        neighbProcNo    7;
    }
)

// ************************************************************************* //
