/*--------------------------------*- C++ -*----------------------------------*\
  =========                 |
  \\      /  F ield         | OpenFOAM: The Open Source CFD Toolbox
   \\    /   O peration     | Website:  https://openfoam.org
    \\  /    A nd           | Version:  12
     \\/     M anipulation  |
\*---------------------------------------------------------------------------*/
FoamFile
{
    format      binary;
    class       polyBoundaryMesh;
    location    "constant/polyMesh";
    object      boundary;
}
// * * * * * * * * * * * * * * * * * * * * * * * * * * * * * * * * * * * * * //

11
(
    inlet1
    {
        type            patch;
        nFaces          140;
        startFace       19447;
    }
    outlet1
    {
        type            patch;
        nFaces          0;
        startFace       19587;
    }
    farfield
    {
        type            patch;
        nFaces          168;
        startFace       19587;
    }
    symmetry1
    {
        type            symmetryPlane;
        inGroups        List<word> 1(symmetryPlane);
        nFaces          696;
        startFace       19755;
    }
    symmetry2
    {
        type            symmetryPlane;
        inGroups        List<word> 1(symmetryPlane);
        nFaces          384;
        startFace       20451;
    }
    sphere
    {
        type            wall;
        inGroups        List<word> 1(wall);
        nFaces          0;
        startFace       20835;
    }
    procBoundary2to0
    {
        type            processor;
        inGroups        List<word> 1(processor);
        nFaces          228;
        startFace       20835;
        matchTolerance  0.0001;
        myProcNo        2;
        neighbProcNo    0;
    }
    procBoundary2to1
    {
        type            processor;
        inGroups        List<word> 1(processor);
        nFaces          378;
        startFace       21063;
        matchTolerance  0.0001;
        myProcNo        2;
        neighbProcNo    1;
    }
    procBoundary2to3
    {
        type            processor;
        inGroups        List<word> 1(processor);
        nFaces          519;
        startFace       21441;
        matchTolerance  0.0001;
        myProcNo        2;
        neighbProcNo    3;
    }
    procBoundary2to6
    {
        type            processor;
        inGroups        List<word> 1(processor);
        nFaces          190;
        startFace       21960;
        matchTolerance  0.0001;
        myProcNo        2;
        neighbProcNo    6;
    }
    procBoundary2to7
    {
        type            processor;
        inGroups        List<word> 1(processor);
        nFaces          7;
        startFace       22150;
        matchTolerance  0.0001;
        myProcNo        2;
        neighbProcNo    7;
    }
)

// ************************************************************************* //
